41

C      -1.021970745586686      0.764213660185744      2.094746159177976
C      -0.839200176185875      1.051671308661563      0.588629801680596
C      -0.397314809381695      2.535118106738189      0.495233562669593
C      -2.249382940786476      1.119377481707545     -0.036417614881591
C       0.157423798071451     -0.007487551716541     -0.102528723774639
C      -0.617382049853453     -1.323426721708235     -0.583513125571701
C      -1.469740302228354     -1.965442409533873      0.523050817860840
C       0.309514375385044     -2.475004541913794     -1.019160557385080
C      -1.521636575562791     -1.104387799286632     -1.820891916982844
C       1.379467311206123     -0.398309080294908      0.850849406824165
C       1.983345437138316      0.895972106842057      1.394088958371789
C       2.611499315584014      1.501399879930843      0.390715613787995
C       2.461546499241957      0.621117068302567     -0.828261780554168
C       2.515529269843315     -0.745854806328716     -0.141550613261331
C       0.969554810787147      0.619465751126276     -1.280708725287003
H      -1.925113085363327      1.266247604414330      2.438244713073876
H      -0.202769144178827      1.159352692080096      2.687248772438169
H      -1.111896356028811     -0.288563325435237      2.335444269901335
H       0.624920519210956      2.707580617003384      0.786063503132763
H      -1.033310854019231      3.118408084891851      1.163396993370698
H      -0.534422030930956      2.930326237000994     -0.509876672186964
H      -2.773889621389924      1.952950338080072      0.431057724102975
H      -2.859010404112257      0.239122162995893      0.117927228896301
H      -2.199241590068381      1.322324234569485     -1.102368311788704
H      -0.840618767542978     -2.349807411560525      1.323391762879145
H      -2.004629067930383     -2.813377303166622      0.092288853822468
H      -2.210154725673887     -1.309673864846684      0.961566696533399
H       0.902576480019121     -2.222380912940042     -1.895698220701404
H      -0.312001452340819     -3.328518744217470     -1.291951957231515
H       0.966776995118465     -2.801608697524695     -0.221274259874150
H      -1.090808646859672     -0.418039742450083     -2.543660109888757
H      -2.509971530012186     -0.741562408931914     -1.572231541262739
H      -1.658536492233103     -2.062938180682083     -2.318032945402189
H       1.134701424483380     -1.145037523442144      1.597430407286689
H       1.826934612385077      1.287906996793762      2.384609189638582
H       3.072445976701569      2.479903988835714      0.405553207162532
H       3.167794952738787      0.803874244337622     -1.634472342992285
H       3.456056407090564     -0.922477496105551      0.373097429887192
H       2.332940426724336     -1.560345433124122     -0.820213462622271
H       0.872947890693227     -0.006687978678829     -2.162198710234285
H       0.637015688470516      1.614602168109337     -1.549622730661594
