41

C       -1.182422       0.767368       1.906277
C       -1.209505       1.104976       0.398528
C       -0.850449       2.584343       0.269125
C       -2.689262       1.085705      -0.030800
C       -0.313476       0.134322      -0.430203
C       -0.990475      -1.251700      -0.775454
C       -1.697370      -1.916694       0.414914
C        0.031775      -2.313982      -1.238205
C       -2.045965      -1.171301      -1.904491
C        2.461633      -0.488675       1.365332
C        2.908045       0.727909       1.768132
C        3.571614       1.389212       0.628936
C        3.502991       0.561840      -0.432856
C        3.536868      -0.808426       0.291701
C        0.296918       0.677813      -1.493062
H       -2.053805       1.206615       2.391232
H       -0.303555       1.191334       2.387928
H       -1.186337      -0.293628       2.108376
H        0.210479       2.780457       0.431039
H       -1.413009       3.137166       1.023425
H       -1.134576       2.988966      -0.699804
H       -3.213464       1.876514       0.510138
H       -3.203881       0.160414       0.181844
H       -2.777391       1.294843      -1.094843
H       -0.977174      -2.194681       1.181653
H       -2.179086      -2.830434       0.066264
H       -2.457481      -1.301218       0.869841
H        0.531376      -2.055504      -2.170486
H       -0.498211      -3.250710      -1.413850
H        0.773035      -2.503890      -0.464679
H       -1.772196      -0.469747      -2.686959
H       -3.021431      -0.884844      -1.536051
H       -2.152287      -2.156266      -2.353060
H        2.252523      -1.229204       2.127030
H        2.776600       1.149277       2.759718
H        4.015046       2.374916       0.629622
H        4.169348       0.722373      -1.272543
H        4.493907      -0.884722       0.802867
H        3.390569      -1.670958      -0.361800
H        0.303476       0.050904      -2.380981
H        0.096623       1.709349      -1.773755
41

C       -1.019777       0.742121       2.102530
C       -0.837411       1.048143       0.599755
C       -0.394760       2.531836       0.524563
C       -2.246981       1.124229      -0.024777
C        0.157287      -0.004511      -0.100879
C       -0.620100      -1.319343      -0.586437
C       -1.474778      -1.967031       0.514861
C        0.304773      -2.470483      -1.027591
C       -1.523131      -1.092397      -1.824091
C        1.380641      -0.385149       0.852406
C        1.990247       0.916892       1.373825
C        2.622491       1.503258       0.361560
C        2.462550       0.607157      -0.843296
C        2.512488      -0.750509      -0.137366
C        0.967026       0.616046      -1.285056
H       -1.923884       1.237763       2.452575
H       -0.200975       1.131545       2.699894
H       -1.106539      -0.313414       2.330097
H        0.625068       2.703693       0.822520
H       -1.034580       3.107884       1.195365
H       -0.526366       2.936750      -0.477428
H       -2.771474       1.952572       0.451852
H       -2.856715       0.242335       0.119073
H       -2.195950       1.339321      -1.088419
H       -0.846964      -2.353987       1.315081
H       -2.007283      -2.813727       0.078616
H       -2.217695      -1.314631       0.954137
H        0.900845      -2.214386      -1.901000
H       -0.318188      -3.320786      -1.307033
H        0.959014      -2.804055      -0.229995
H       -1.089901      -0.405565      -2.544757
H       -2.510272      -0.726574      -1.575103
H       -1.663369      -2.048833      -2.324234
H        1.136049      -1.120331       1.610717
H        1.835334       1.325599       2.357862
H        3.088694       2.479432       0.360981
H        3.165336       0.774958      -1.655725
H        3.453576      -0.923030       0.377512
H        2.325535      -1.574250      -0.803390
H        0.860996      -0.011705      -2.164023
H        0.639159       1.613175      -1.555145
