17
3.0708001889288425
C        0.792438       1.217991       0.657767
C        1.531263       0.715017      -0.335773
C        1.444002      -0.753362      -0.304112
C        0.652405      -1.122344       0.708284
H        0.612492       2.258316       0.874702
H        2.074606       1.278536      -1.076416
H        1.916975      -1.410042      -1.017029
H        0.346152      -2.125100       0.961436
C        0.237157       0.093615       1.478373
H        0.730430       0.090204       2.456924
H       -0.833117       0.160200       1.670222
C       -1.820322       0.845674      -0.882956
C       -1.902074      -0.474530      -0.856314
H       -2.202292       1.463866      -0.081925
H       -1.375696       1.361594      -1.720859
H       -1.515614      -1.077307      -1.663462
H       -2.354998      -1.006988      -0.031905
17
2.954771814518608
C        0.794928       1.174470       0.594302
C        1.534670       0.683410      -0.409295
C        1.473659      -0.786034      -0.378640
C        0.703987      -1.170052       0.644730
H        0.602391       2.213635       0.813362
H        2.070758       1.257114      -1.148311
H        1.950370      -1.432076      -1.098240
H        0.419449      -2.177468       0.903629
C        0.269672       0.039080       1.419745
H        0.760048       0.040104       2.399890
H       -0.803984       0.079958       1.606227
C       -1.841664       0.744427      -0.909849
C       -1.894342      -0.577969      -0.877248
H       -2.206405       1.365280      -0.104096
H       -1.409207       1.263524      -1.751185
H       -1.515892      -1.174405      -1.692250
H       -2.315449      -1.123816      -0.043829
17
2.8546204718004446
C        0.777976       1.141911       0.578974
C        1.514498       0.686235      -0.438736
C        1.495489      -0.785747      -0.426053
C        0.747523      -1.203809       0.599152
H        0.558383       2.171110       0.814502
H        2.022355       1.283899      -1.178517
H        1.979925      -1.408471      -1.159710
H        0.491117      -2.222862       0.839344
C        0.284241      -0.018332       1.390010
H        0.771524      -0.017387       2.370029
H       -0.790509      -0.005425       1.573847
C       -1.863749       0.657766      -0.922263
C       -1.879344      -0.663897      -0.905048
H       -2.240731       1.252239      -0.102552
H       -1.453231       1.200747      -1.759494
H       -1.491098      -1.237660      -1.732053
H       -2.273571      -1.227765      -0.070839
17
2.7739322724519297
C        0.775058       1.099762       0.535303
C        1.512931       0.658384      -0.491057
C        1.517850      -0.812792      -0.483935
C        0.786586      -1.247633       0.547330
H        0.542464       2.124506       0.777340
H        2.008841       1.268480      -1.229583
H        2.008697      -1.425808      -1.223419
H        0.547449      -2.270623       0.789538
C        0.305239      -0.072318       1.344284
H        0.784845      -0.065460       2.329714
H       -0.770969      -0.079734       1.522224
C       -1.876780       0.570212      -0.948095
C       -1.869338      -0.752911      -0.931558
H       -2.248024       1.163402      -0.124698
H       -1.485641       1.117929      -1.791772
H       -1.482757      -1.320112      -1.763490
H       -2.240448      -1.325024      -0.092065
