17
17.12369137603673
C        0.426362       1.208292       0.534294
C        1.303211       0.752106      -0.402690
C        1.278077      -0.683875      -0.401651
C        0.392562      -1.111471       0.541253
H        0.259464       2.241526       0.793997
H        1.826291       1.355868      -1.129179
H        1.789334      -1.307063      -1.121992
H        0.222463      -2.137519       0.829908
C        0.105169       0.057168       1.439584
H        0.855336       0.046792       2.232470
H       -0.873597       0.075191       1.915579
C       -1.589914       0.740026      -0.725130
C       -1.616872      -0.608357      -0.720931
H       -2.186621       1.301649      -0.019364
H       -1.228838       1.271833      -1.588710
H       -1.309502      -1.165631      -1.589573
H       -2.224697      -1.135741      -0.000412
17
16.497068191383732
C        0.470529       1.153143       0.508235
C        1.322596       0.687955      -0.439539
C        1.308036      -0.751400      -0.423645
C        0.433599      -1.168484       0.528186
H        0.321600       2.186960       0.779207
H        1.840823       1.285540      -1.177148
H        1.815825      -1.381070      -1.138425
H        0.250742      -2.196362       0.813157
C        0.152410       0.005160       1.420574
H        0.901111      -0.003543       2.222201
H       -0.827108       0.025214       1.892259
C       -1.577173       0.686761      -0.732297
C       -1.599921      -0.658785      -0.722019
H       -2.150382       1.245255      -0.005418
H       -1.266289       1.221780      -1.613408
H       -1.290491      -1.221769      -1.587185
H       -2.196705      -1.178001       0.014659
17
15.842667417484336
C        0.521515       1.088374       0.455964
C        1.357534       0.615674      -0.497216
C        1.346094      -0.827449      -0.463082
C        0.486173      -1.234844       0.499317
H        0.404301       2.126116       0.735224
H        1.880534       1.208476      -1.235391
H        1.856952      -1.465028      -1.168695
H        0.297983      -2.258349       0.786940
C        0.206952      -0.052690       1.378524
H        0.949857      -0.050762       2.186805
H       -0.777289      -0.030254       1.839957
C       -1.568481       0.614760      -0.758980
C       -1.581618      -0.725789      -0.740962
H       -2.109242       1.171762      -0.007973
H       -1.304877       1.158489      -1.650627
H       -1.272916      -1.292912      -1.604145
H       -2.159424      -1.251367       0.006997
17
15.205136762931943
C        0.596941       1.013183       0.364001
C        1.423744       0.526702      -0.588029
C        1.403494      -0.918556      -0.540087
C        0.559053      -1.314271       0.437226
H        0.512843       2.054605       0.642015
H        1.953101       1.107961      -1.331568
H        1.909358      -1.564281      -1.241343
H        0.369313      -2.330668       0.735803
C        0.285238      -0.119181       1.301257
H        1.026781      -0.106824       2.105113
H       -0.702724      -0.091209       1.757617
C       -1.545812       0.530566      -0.820017
C       -1.553354      -0.804976      -0.789775
H       -2.053548       1.089634      -0.046993
H       -1.322403       1.082988      -1.718520
H       -1.262476      -1.380609      -1.652052
H       -2.106346      -1.333522      -0.022985
