17
0.0
C        0.087839       1.128484       0.322445
C        1.279369       0.670241      -0.507552
C        1.279369      -0.670241      -0.507552
C        0.087839      -1.128484       0.322445
H        0.119773       2.157686       0.688825
H        1.921374       1.328649      -1.085047
H        1.921374      -1.328649      -1.085047
H        0.119773      -2.157686       0.688825
C        0.041368       0.000000       1.380604
H        0.912915      -0.000000       2.042669
H       -0.878014       0.000000       1.979757
C       -1.191585       0.780700      -0.516050
C       -1.191585      -0.780700      -0.516050
H       -2.088699       1.177804      -0.027076
H       -1.147738       1.206817      -1.522784
H       -1.147738      -1.206816      -1.522784
H       -2.088699      -1.177804      -0.027076
17
-0.3026175160193816
C        0.086859       1.126140       0.321757
C        1.276694       0.667450      -0.507225
C        1.276694      -0.667450      -0.507225
C        0.086859      -1.126139       0.321757
H        0.119075       2.152926       0.686646
H        1.917902       1.324136      -1.083336
H        1.917902      -1.324136      -1.083336
H        0.119075      -2.152926       0.686646
C        0.040155       0.000000       1.378232
H        0.909905       0.000000       2.038114
H       -0.877594       0.000000       1.975951
C       -1.189348       0.779037      -0.514384
C       -1.189348      -0.779037      -0.514384
H       -2.084073       1.175231      -0.026490
H       -1.144873       1.203803      -1.518840
H       -1.144873      -1.203802      -1.518840
H       -2.084073      -1.175231      -0.026490
17
-0.5232589113293216
C        0.084042       1.123031       0.320511
C        1.271932       0.665704      -0.507823
C        1.271932      -0.665704      -0.507823
C        0.084042      -1.123031       0.320511
H        0.116085       2.146261       0.682651
H        1.912842       1.320760      -1.080289
H        1.912842      -1.320760      -1.080289
H        0.116085      -2.146261       0.682651
C        0.037913      -0.000000       1.374103
H        0.905669      -0.000000       2.029565
H       -0.877623      -0.000000       1.968764
C       -1.185044       0.776071      -0.510909
C       -1.185044      -0.776071      -0.510909
H       -2.075937       1.170174      -0.024228
H       -1.138433       1.198430      -1.511853
H       -1.138433      -1.198429      -1.511853
H       -2.075937      -1.170174      -0.024228
17
-0.5303459146234673
C        0.083569       1.122779       0.320375
C        1.271348       0.665635      -0.508092
C        1.271348      -0.665635      -0.508092
C        0.083569      -1.122779       0.320375
H        0.115676       2.145826       0.682058
H        1.912659       1.320634      -1.079742
H        1.912659      -1.320634      -1.079742
H        0.115676      -2.145826       0.682058
C        0.037700      -0.000000       1.373774
H        0.905615      -0.000000       2.028482
H       -0.877756      -0.000000       1.968031
C       -1.184729       0.775755      -0.510502
C       -1.184729      -0.775756      -0.510502
H       -2.075268       1.169631      -0.023752
H       -1.137568       1.197795      -1.511214
H       -1.137568      -1.197794      -1.511214
H       -2.075268      -1.169631      -0.023752
