17
31.7803166238009
C        0.715800       1.175034       0.492281
C        1.387852       0.738005      -0.580402
C        1.385943      -0.732327      -0.581249
C        0.713875      -1.170879       0.490330
H        0.528376       2.200444       0.768427
H        1.810792       1.348699      -1.363252
H        1.823984      -1.343299      -1.355574
H        0.533132      -2.197504       0.765836
C        0.394644       0.001489       1.369473
H        1.122799      -0.000274       2.190337
H       -0.591768       0.003385       1.830319
C       -1.929426       0.663916      -0.641214
C       -1.931623      -0.658367      -0.636511
H       -2.284454       1.248575       0.197391
H       -1.640288       1.223774      -1.516925
H       -1.632671      -1.224481      -1.504803
H       -2.295732      -1.236813       0.202308
17
31.61824334555422
C        0.718531       1.176016       0.506373
C        1.392080       0.737290      -0.566482
C        1.391157      -0.733719      -0.566751
C        0.714280      -1.169938       0.504992
H        0.521413       2.200534       0.778747
H        1.799319       1.345738      -1.358651
H        1.803298      -1.343273      -1.355683
H        0.527288      -2.194550       0.784004
C        0.388319       0.002901       1.381511
H        1.107067      -0.001160       2.209129
H       -0.602654       0.005693       1.829378
C       -1.923736       0.663920      -0.659438
C       -1.924651      -0.660090      -0.659534
H       -2.281748       1.249138       0.177108
H       -1.620116       1.223723      -1.528685
H       -1.618638      -1.220943      -1.528044
H       -2.284618      -1.244344       0.177659
17
31.54151993690175
C        0.714813       1.176221       0.526576
C        1.404635       0.736178      -0.534098
C        1.403103      -0.735728      -0.531943
C        0.708945      -1.170080       0.528089
H        0.512231       2.201301       0.792722
H        1.815438       1.342913      -1.325791
H        1.804401      -1.344682      -1.327153
H        0.516455      -2.193020       0.808192
C        0.364768       0.004784       1.394961
H        1.062792       0.001260       2.241735
H       -0.638253       0.008429       1.816538
C       -1.913773       0.662440      -0.696651
C       -1.911737      -0.661189      -0.703388
H       -2.284308       1.244086       0.137179
H       -1.592715       1.226211      -1.557964
H       -1.594422      -1.215687      -1.572439
H       -2.275759      -1.251659       0.126708
17
31.507754269696306
C        0.708100       1.175630       0.539896
C        1.416346       0.733436      -0.508602
C        1.414321      -0.737484      -0.503480
C        0.701439      -1.169881       0.545120
H        0.506394       2.201827       0.802568
H        1.836796       1.338607      -1.296425
H        1.821324      -1.347233      -1.295154
H        0.507346      -2.192351       0.825446
C        0.340740       0.006221       1.403569
H        1.017422       0.004348       2.267564
H       -0.672450       0.010575       1.799434
C       -1.905523       0.662611      -0.725139
C       -1.899778      -0.661400      -0.738588
H       -2.287464       1.238690       0.107898
H       -1.574303       1.231169      -1.579430
H       -1.571906      -1.209740      -1.607784
H       -2.269986      -1.257229       0.084576
