17
49.70864128586254
C        0.387536       1.154731       0.382951
C        1.238110       0.701255      -0.631523
C        1.238573      -0.692970      -0.629803
C        0.388307      -1.144536       0.385773
H        0.278449       2.189979       0.674732
H        1.697798       1.316820      -1.390268
H        1.698531      -1.310081      -1.387128
H        0.279887      -2.179129       0.680140
C        0.243971       0.006216       1.345540
H        1.100192       0.007346       2.023582
H       -0.665316       0.006600       1.941661
C       -1.527648       0.699874      -0.493554
C       -1.527142      -0.693070      -0.492071
H       -2.074131       1.223323       0.273675
H       -1.366643       1.235418      -1.411843
H       -1.365475      -1.230446      -1.409176
H       -2.073267      -1.215367       0.276201
17
49.708646783954464
C        0.387539       1.154730       0.382953
C        1.238097       0.701257      -0.631528
C        1.238561      -0.692972      -0.629807
C        0.388311      -1.144537       0.385776
H        0.278461       2.189978       0.674740
H        1.697765       1.316821      -1.390285
H        1.698506      -1.310082      -1.387141
H        0.279901      -2.179129       0.680146
C        0.243992       0.006216       1.345545
H        1.100239       0.007348       2.023558
H       -0.665273       0.006600       1.941697
C       -1.527659       0.699872      -0.493555
C       -1.527154      -0.693066      -0.492071
H       -2.074150       1.223315       0.273672
H       -1.366642       1.235420      -1.411839
H       -1.365481      -1.230446      -1.409172
H       -2.073285      -1.215356       0.276200
17
49.7085869924922
C        0.387541       1.154730       0.382955
C        1.238083       0.701259      -0.631534
C        1.238549      -0.692973      -0.629813
C        0.388316      -1.144538       0.385778
H        0.278474       2.189977       0.674748
H        1.697732       1.316822      -1.390302
H        1.698481      -1.310082      -1.387155
H        0.279915      -2.179130       0.680152
C        0.244014       0.006215       1.345549
H        1.100286       0.007349       2.023533
H       -0.665228       0.006599       1.941734
C       -1.527670       0.699870      -0.493554
C       -1.527166      -0.693062      -0.492069
H       -2.074167       1.223307       0.273670
H       -1.366643       1.235421      -1.411834
H       -1.365488      -1.230447      -1.409166
H       -2.073304      -1.215345       0.276201
17
49.7086000503914
C        0.387543       1.154729       0.382956
C        1.238069       0.701262      -0.631542
C        1.238536      -0.692974      -0.629820
C        0.388320      -1.144538       0.385780
H        0.278488       2.189975       0.674756
H        1.697699       1.316824      -1.390321
H        1.698455      -1.310082      -1.387171
H        0.279931      -2.179130       0.680158
C        0.244036       0.006215       1.345553
H        1.100334       0.007349       2.023507
H       -0.665183       0.006598       1.941771
C       -1.527681       0.699867      -0.493553
C       -1.527178      -0.693059      -0.492066
H       -2.074184       1.223300       0.273670
H       -1.366645       1.235422      -1.411828
H       -1.365497      -1.230448      -1.409158
H       -2.073322      -1.215333       0.276204
