17
5.532843149208929
C        0.675501       1.126334       0.530683
C        1.466564       0.692775      -0.463205
C        1.474825      -0.775230      -0.464905
C        0.691452      -1.218383       0.527647
H        0.462760       2.151094       0.795838
H        1.979362       1.305001      -1.189477
H        1.981442      -1.378649      -1.201456
H        0.477417      -2.246411       0.774604
C        0.260704      -0.050598       1.363413
H        0.865734      -0.045019       2.279269
H       -0.782372      -0.062304       1.673285
C       -1.736021       0.603711      -0.880390
C       -1.727533      -0.720391      -0.879123
H       -2.191718       1.183948      -0.090543
H       -1.348683       1.166348      -1.716144
H       -1.336730      -1.282255      -1.712985
H       -2.177708      -1.303350      -0.087074
17
5.400965920707677
C        0.603776       1.137581       0.550657
C        1.395448       0.726769      -0.451362
C        1.422749      -0.742221      -0.472914
C        0.650637      -1.208182       0.520898
H        0.361985       2.155495       0.810969
H        1.891420       1.354376      -1.176179
H        1.937899      -1.330657      -1.216011
H        0.448909      -2.240684       0.758922
C        0.207492      -0.054602       1.368811
H        0.817812      -0.057151       2.279431
H       -0.831325      -0.079644       1.693028
C       -1.804426       0.584746      -0.880688
C       -1.781436      -0.738074      -0.883123
H       -2.277047       1.156267      -0.093916
H       -1.396400       1.157468      -1.697696
H       -1.376239      -1.288480      -1.718005
H       -2.224477      -1.332427      -0.094765
17
5.314914360787952
C        0.522240       1.125318       0.548933
C        1.305659       0.743485      -0.471056
C        1.354733      -0.723591      -0.515537
C        0.600840      -1.218562       0.477657
H        0.257224       2.132826       0.826843
H        1.783818       1.392915      -1.187940
H        1.871885      -1.292959      -1.272997
H        0.419031      -2.259094       0.699874
C        0.152566      -0.086600       1.351702
H        0.773397      -0.096738       2.257438
H       -0.882439      -0.130417       1.688226
C       -1.901956       0.556530      -0.864350
C       -1.862489      -0.766890      -0.883582
H       -2.371847       1.120898      -0.071158
H       -1.501868       1.137923      -1.679404
H       -1.452832      -1.301025      -1.726893
H       -2.287873      -1.380072      -0.100773
17
5.242743348382646
C        0.441424       1.126998       0.553463
C        1.214322       0.774090      -0.483429
C        1.284624      -0.691934      -0.554726
C        0.554362      -1.214316       0.441788
H        0.158450       2.126305       0.844441
H        1.668889       1.440746      -1.200147
H        1.796816      -1.239750      -1.330524
H        0.389622      -2.259325       0.651014
C        0.097896      -0.102275       1.338535
H        0.729140      -0.120129       2.235918
H       -0.930659      -0.166512       1.688335
C       -1.996319       0.536404      -0.847334
C       -1.938856      -0.784846      -0.882871
H       -2.467932       1.082284      -0.041523
H       -1.609292       1.135489      -1.655742
H       -1.532794      -1.305261      -1.736365
H       -2.346289      -1.409954      -0.098097
