17
27.494863719446585
C        0.919670       1.169311       0.557489
C        1.435197       0.739950      -0.598428
C        1.440772      -0.730665      -0.605470
C        0.931164      -1.174386       0.547960
H        0.755622       2.191501       0.860251
H        1.741025       1.361695      -1.426137
H        1.776386      -1.343770      -1.427771
H        0.788047      -2.203519       0.840463
C        0.630288      -0.007338       1.434734
H        1.331811      -0.007835       2.275726
H       -0.368194      -0.011922       1.876172
C       -2.202590       0.670208      -0.714316
C       -2.210480      -0.649278      -0.687270
H       -2.563350       1.253547       0.121140
H       -1.846125       1.216008      -1.574972
H       -1.861548      -1.234943      -1.524308
H       -2.572648      -1.192085       0.174689
17
27.415812568360707
C        0.919173       1.169821       0.565151
C        1.445928       0.738427      -0.583691
C        1.451563      -0.732264      -0.585843
C        0.929868      -1.173314       0.561383
H        0.748968       2.193535       0.859403
H        1.778484       1.359193      -1.401775
H        1.798615      -1.347362      -1.402066
H        0.775071      -2.200828       0.851582
C        0.619213      -0.004903       1.441333
H        1.313405      -0.003398       2.288740
H       -0.382574      -0.009259       1.873591
C       -2.207766       0.668547      -0.732202
C       -2.211644      -0.650292      -0.713854
H       -2.575843       1.243612       0.105904
H       -1.847322       1.222354      -1.587046
H       -1.849487      -1.229273      -1.550865
H       -2.583948      -1.199803       0.139471
17
27.361715751088923
C        0.914229       1.170250       0.580751
C        1.459323       0.735266      -0.559313
C        1.465484      -0.734879      -0.556502
C        0.923763      -1.171983       0.583634
H        0.736552       2.195698       0.865036
H        1.815699       1.354104      -1.368313
H        1.822878      -1.352305      -1.366278
H        0.755401      -2.197252       0.872486
C        0.597962      -0.001675       1.454850
H        1.277346       0.001853       2.313618
H       -0.410320      -0.005722       1.869241
C       -2.205454       0.667854      -0.763628
C       -2.203792      -0.651695      -0.757054
H       -2.586569       1.233710       0.075521
H       -1.834318       1.230655      -1.607720
H       -1.823300      -1.221087      -1.592763
H       -2.589109      -1.210995       0.084319
17
27.324671863781987
C        0.907973       1.170762       0.597466
C        1.472503       0.731748      -0.531571
C        1.477915      -0.738376      -0.524306
C        0.915374      -1.171779       0.607070
H        0.723877       2.197730       0.873004
H        1.848327       1.348316      -1.333345
H        1.849406      -1.358573      -1.325640
H        0.737296      -2.195648       0.894408
C        0.572882       0.001569       1.468357
H        1.234415       0.006846       2.341039
H       -0.443861      -0.000681       1.862451
C       -2.199606       0.667168      -0.797719
C       -2.192213      -0.651764      -0.803629
H       -2.592533       1.224073       0.042357
H       -1.819778       1.240310      -1.631091
H       -1.795412      -1.211764      -1.638178
H       -2.588059      -1.221865       0.025547
