17
27.770364788302686
C        0.880416       1.178838       0.589978
C        1.446238       0.743129      -0.537874
C        1.443446      -0.727799      -0.539121
C        0.875780      -1.163491       0.587894
H        0.701000       2.204004       0.873438
H        1.812886       1.360142      -1.344054
H        1.808740      -1.344928      -1.346372
H        0.686891      -2.188056       0.867562
C        0.545061       0.007538       1.457448
H        1.210323       0.005859       2.328302
H       -0.470924       0.008697       1.851668
C       -2.160345       0.658146      -0.776590
C       -2.161445      -0.661789      -0.771014
H       -2.541724       1.226959       0.059694
H       -1.786493       1.217145      -1.621575
H       -1.788107      -1.228828      -1.609983
H       -2.546092      -1.223071       0.068105
17
27.701327671849867
C        0.892931       1.178241       0.570942
C        1.437255       0.744609      -0.570418
C        1.436243      -0.725962      -0.573060
C        0.888224      -1.163317       0.565311
H        0.726631       2.203757       0.861021
H        1.785560       1.363962      -1.382659
H        1.788458      -1.342860      -1.385167
H        0.717693      -2.189728       0.849805
C        0.574594       0.005981       1.443773
H        1.249042       0.002436       2.304030
H       -0.438322       0.007801       1.850255
C       -2.180027       0.658687      -0.738876
C       -2.183756      -0.660388      -0.726427
H       -2.540188       1.227948       0.105786
H       -1.823227       1.216618      -1.590935
H       -1.828564      -1.235613      -1.568323
H       -2.554379      -1.213197       0.125024
17
27.639160385238938
C        0.908912       1.178097       0.548543
C        1.422687       0.746726      -0.606424
C        1.422353      -0.723401      -0.611632
C        0.905681      -1.163096       0.538790
H        0.755307       2.203542       0.846111
H        1.749221       1.367306      -1.426934
H        1.751235      -1.338831      -1.435724
H        0.752716      -2.191279       0.827524
C        0.612818       0.004682       1.426998
H        1.308584       0.000358       2.273003
H       -0.389092       0.005303       1.856789
C       -2.202220       0.659694      -0.693185
C       -2.208745      -0.660512      -0.672057
H       -2.542333       1.233844       0.157252
H       -1.867482       1.213332      -1.558001
H       -1.877632      -1.243123      -1.518420
H       -2.563783      -1.205026       0.190890
17
27.591226209449815
C        0.922434       1.178548       0.526648
C        1.409680       0.749332      -0.641753
C        1.410533      -0.721229      -0.649256
C        0.919865      -1.163678       0.513011
H        0.781710       2.203771       0.831600
H        1.716844       1.372167      -1.467971
H        1.721367      -1.335374      -1.480265
H        0.784072      -2.193008       0.805739
C        0.646706       0.002564       1.409538
H        1.357548      -0.003349       2.240191
H       -0.347989       0.002595       1.859140
C       -2.223033       0.659702      -0.649575
C       -2.231982      -0.658753      -0.619646
H       -2.539080       1.239051       0.206390
H       -1.908492       1.208654      -1.524281
H       -1.922549      -1.249673      -1.468905
H       -2.568386      -1.195920       0.256013
