17
0
C        0.344115       1.151010       0.441885
C        1.314607       0.696541      -0.457957
C        1.313300      -0.697738      -0.456313
C        0.341894      -1.148255       0.444547
H        0.200775       2.186402       0.717979
H        1.866261       1.311573      -1.153192
H        1.863758      -1.315432      -1.150132
H        0.196688      -2.182718       0.723140
C        0.080094       0.002718       1.378888
H        0.845213       0.002848       2.158276
H       -0.896289       0.004218       1.857290
C       -1.446579       0.698037      -0.668191
C       -1.447805      -0.694781      -0.666415
H       -2.084664       1.222199       0.024174
H       -1.170872       1.233187      -1.559003
H       -1.173180      -1.232639      -1.555926
H       -2.086898      -1.215993       0.027241
