41

C       -1.021924       0.764143       2.094742
C       -0.839182       1.051623       0.588641
C       -0.397255       2.535039       0.495301
C       -2.249389       1.119309      -0.036376
C        0.157421      -0.007507      -0.102525
C       -0.617404      -1.323423      -0.583530
C       -1.469837      -1.965388       0.522993
C        0.309453      -2.475051      -1.019147
C       -1.521581      -1.104322      -1.820965
C        1.379478      -0.398226       0.850898
C        1.983355       0.896111       1.394050
C        2.611491       1.501483       0.390624
C        2.461528       0.621116      -0.828285
C        2.515543      -0.745804      -0.141463
C        0.969532       0.619424      -1.280718
H       -1.925038       1.266215       2.438275
H       -0.202683       1.159250       2.687211
H       -1.111886      -0.288642       2.335427
H        0.624988       2.707416       0.786128
H       -1.033209       3.118310       1.163512
H       -0.534340       2.930306      -0.509785
H       -2.773930       1.952857       0.431118
H       -2.858956       0.239017       0.117998
H       -2.199299       1.322245      -1.102335
H       -0.840773      -2.349793       1.323356
H       -2.004775      -2.813293       0.092221
H       -2.210216      -1.309560       0.961467
H        0.902507      -2.222457      -1.895704
H       -0.312107      -3.328552      -1.291899
H        0.966724      -2.801678      -0.221267
H       -1.090658      -0.417981      -2.543716
H       -2.509914      -0.741434      -1.572369
H       -1.658492      -2.062862      -2.318129
H        1.134723      -1.144917       1.597526
H        1.826967       1.288119       2.384547
H        3.072440       2.479991       0.405380
H        3.167775       0.803837      -1.634508
H        3.456071      -0.922348       0.373200
H        2.332971      -1.560350      -0.820053
H        0.872912      -0.006763      -2.162179
H        0.636962       1.614541      -1.549661
