17
38.818646280735265
C        0.565926       1.171329       0.474738
C        1.325554       0.728422      -0.554571
C        1.324728      -0.727491      -0.552284
C        0.557803      -1.164238       0.474448
H        0.410261       2.198673       0.766780
H        1.732373       1.331772      -1.353066
H        1.737522      -1.335040      -1.344685
H        0.418018      -2.191396       0.773543
C        0.313776       0.004559       1.388359
H        1.120944      -0.002331       2.126942
H       -0.629799       0.011068       1.929897
C       -1.721316       0.669803      -0.632043
C       -1.721867      -0.667524      -0.638061
H       -2.196491       1.229123       0.162592
H       -1.470715       1.224541      -1.521025
H       -1.470453      -1.215347      -1.531496
H       -2.195625      -1.232041       0.154167
17
38.480577941198135
C        0.560764       1.171127       0.484200
C        1.339819       0.731557      -0.525393
C        1.331073      -0.725717      -0.529515
C        0.554650      -1.165545       0.482073
H        0.406494       2.200060       0.770066
H        1.790692       1.341387      -1.295411
H        1.782031      -1.336807      -1.297985
H        0.417529      -2.194797       0.774859
C        0.291808       0.002852       1.388488
H        1.085249      -0.001686       2.143620
H       -0.661169       0.007326       1.920220
C       -1.723491       0.665925      -0.665981
C       -1.726295      -0.666485      -0.665390
H       -2.213473       1.224044       0.120472
H       -1.461529       1.222968      -1.552500
H       -1.467650      -1.224803      -1.551726
H       -2.214866      -1.222205       0.122038
17
38.19316325688851
C        0.546033       1.169898       0.492640
C        1.355691       0.732628      -0.494203
C        1.352051      -0.725818      -0.498307
C        0.547190      -1.167644       0.489844
H        0.390684       2.199372       0.773887
H        1.856804       1.346833      -1.228199
H        1.855229      -1.337586      -1.232618
H        0.399777      -2.197991       0.772988
C        0.250365      -0.000163       1.386598
H        1.018600      -0.000750       2.171519
H       -0.715844      -0.000646       1.889237
C       -1.717823       0.667286      -0.704608
C       -1.721016      -0.664831      -0.697326
H       -2.225684       1.226472       0.071045
H       -1.435077       1.221893      -1.584717
H       -1.444072      -1.230763      -1.572044
H       -2.230091      -1.213439       0.084453
17
38.01323158247396
C        0.529055       1.168128       0.506990
C        1.373341       0.733993      -0.452516
C        1.374531      -0.724374      -0.456885
C        0.536979      -1.169556       0.503352
H        0.366594       2.198406       0.781402
H        1.919299       1.351373      -1.150068
H        1.925563      -1.334840      -1.156712
H        0.371036      -2.200868       0.772990
C        0.205655      -0.003289       1.391613
H        0.943019      -0.000173       2.201614
H       -0.779210      -0.009044       1.856169
C       -1.704480       0.668689      -0.752590
C       -1.709582      -0.664789      -0.737703
H       -2.235232       1.231552       0.004338
H       -1.392025       1.218129      -1.626025
H       -1.409923      -1.236672      -1.600978
H       -2.241979      -1.206980       0.032992
